outs:
- md5: 66015093e1c0bb1c448eec1929defcce
  size: 363
  hash: md5
  path: TELEMACH___GLAVNI_TRG___STARI_PERON.json
