outs:
- md5: 677f31456c3f57ae4910a665103928c2
  size: 363
  hash: md5
  path: TELEMACH___GLAVNI_TRG___STARI_PERON.json
