outs:
- md5: fc66f531eca924244d244a0b54c23a74
  size: 363
  hash: md5
  path: TELEMACH___GLAVNI_TRG___STARI_PERON.json
