outs:
- md5: d280e412234115e7efb59311ac3a4dd4
  size: 364
  hash: md5
  path: TELEMACH___GLAVNI_TRG___STARI_PERON.json
