outs:
- md5: 8210a38732253f29490f64ee68d2d3b3
  size: 363
  hash: md5
  path: TELEMACH___GLAVNI_TRG___STARI_PERON.json
