outs:
- md5: 7ecf29ae098ccfd0cf53c9600770fa2a
  size: 363
  hash: md5
  path: TELEMACH___GLAVNI_TRG___STARI_PERON.json
