outs:
- md5: 616769bd8c3e7ca64a0f5545ef9a3935
  size: 362
  hash: md5
  path: TELEMACH___GLAVNI_TRG___STARI_PERON.json
