outs:
- md5: 28d7bcc36a85930e54f3229dff004e59
  size: 364
  hash: md5
  path: TELEMACH___GLAVNI_TRG___STARI_PERON.json
