outs:
- md5: 443127e77aaa651773db8bc6508319b1
  size: 363
  hash: md5
  path: TELEMACH___GLAVNI_TRG___STARI_PERON.json
