outs:
- md5: e71a3a160011d35cef8961d799f4e77a
  size: 363
  hash: md5
  path: TELEMACH___GLAVNI_TRG___STARI_PERON.json
