outs:
- md5: cd4268d70d94b8c4bf2647472fc39854
  size: 363
  hash: md5
  path: TELEMACH___GLAVNI_TRG___STARI_PERON.json
