outs:
- md5: e984748c0c7537504af42645b9e8a9f3
  size: 363
  hash: md5
  path: TELEMACH___GLAVNI_TRG___STARI_PERON.json
