outs:
- md5: 4fc2180038e5b5e0f901e9facf8066ca
  size: 363
  hash: md5
  path: TELEMACH___GLAVNI_TRG___STARI_PERON.json
