outs:
- md5: b7ac2e7de7004f57ab0ae4d982c2e132
  size: 363
  hash: md5
  path: TELEMACH___GLAVNI_TRG___STARI_PERON.json
