outs:
- md5: c91a30d4db87d1bd6379da5557b6315b
  size: 363
  hash: md5
  path: TELEMACH___GLAVNI_TRG___STARI_PERON.json
