outs:
- md5: 7c1c70540d8c225bcbcf0eab8d0443e8
  size: 363
  hash: md5
  path: TELEMACH___GLAVNI_TRG___STARI_PERON.json
