outs:
- md5: 7323b36b3e363c1dd901df6382d5799c
  size: 363
  hash: md5
  path: TELEMACH___GLAVNI_TRG___STARI_PERON.json
