outs:
- md5: 9790231b06e2d2683774658b4e2ad269
  size: 363
  hash: md5
  path: TELEMACH___GLAVNI_TRG___STARI_PERON.json
