outs:
- md5: b39c7d176537c02dd393163998c4bff6
  size: 363
  hash: md5
  path: TELEMACH___GLAVNI_TRG___STARI_PERON.json
