outs:
- md5: 16f139e122923970f6b626a59d8a988f
  size: 363
  hash: md5
  path: TELEMACH___GLAVNI_TRG___STARI_PERON.json
