outs:
- md5: 49761c22df4a92f4bfc7f35e68a03607
  size: 363
  hash: md5
  path: TELEMACH___GLAVNI_TRG___STARI_PERON.json
