outs:
- md5: f1cb6e250271b228cc84c7b51e62304f
  size: 363
  hash: md5
  path: TELEMACH___GLAVNI_TRG___STARI_PERON.json
