outs:
- md5: 179ef9d5e876d39c6ed1cc44da82a20f
  size: 363
  hash: md5
  path: TELEMACH___GLAVNI_TRG___STARI_PERON.json
