outs:
- md5: 117e40186ab6b79e350ba6f612ad32be
  size: 363
  hash: md5
  path: TELEMACH___GLAVNI_TRG___STARI_PERON.json
