outs:
- md5: bf5cd310784acb6cf5e1cab8f3912062
  size: 363
  hash: md5
  path: TELEMACH___GLAVNI_TRG___STARI_PERON.json
