outs:
- md5: 35f15de376c58b14140517ca3f5bd32b
  size: 364
  hash: md5
  path: TELEMACH___GLAVNI_TRG___STARI_PERON.json
