outs:
- md5: 8dc6bee209ccca29d6e6ae8e7847106b
  size: 363
  hash: md5
  path: TELEMACH___GLAVNI_TRG___STARI_PERON.json
