outs:
- md5: 144b3dcc9c466ca5d97d323c975be66b
  size: 364
  hash: md5
  path: TELEMACH___GLAVNI_TRG___STARI_PERON.json
