outs:
- md5: cedc1c0a6adecc7b4ef11b231e7ba3dd
  size: 363
  hash: md5
  path: TELEMACH___GLAVNI_TRG___STARI_PERON.json
