outs:
- md5: 881eb8282c250a20692f7d50e0f1af8d
  size: 363
  hash: md5
  path: TELEMACH___GLAVNI_TRG___STARI_PERON.json
