outs:
- md5: 83a9b6d4d8ccc8de9351a0ab23cf94ad
  size: 363
  hash: md5
  path: TELEMACH___GLAVNI_TRG___STARI_PERON.json
